@<TRIPOS>MOLECULE
52999
41 42 1 0 0 
SMALL
NO_CHARGES


@<TRIPOS>ATOM
  1 S        2.3900     0.0010     1.8160 S.o2  1 <1>   0.0000 
  2 O        2.1840    -1.0370     2.8150 O.2   1 <1>   0.0000 
  3 O        3.3750     1.0460     2.0500 O.2   1 <1>   0.0000 
  4 O        1.9730     2.0070    -1.1090 O.3   1 <1>   0.0000 
  5 O        4.1860     2.1090    -0.4830 O.2   1 <1>   0.0000 
  6 O       -0.3240    -1.1880     0.9470 O.2   1 <1>   0.0000 
  7 O       -4.5340    -2.2250    -0.4890 O.3   1 <1>   0.0000 
  8 N        0.8830     0.7320     1.4560 N.am  1 <1>   0.0000 
  9 N       -1.3300     0.9100     0.7480 N.am  1 <1>   0.0000 
 10 N       -3.4540     1.6400     0.1000 N.ar  1 <1>   0.0000 
 11 N       -2.9120    -0.6970     0.1340 N.ar  1 <1>   0.0000 
 12 N       -5.1020     0.0180    -0.5380 N.ar  1 <1>   0.0000 
 13 C        2.7850    -0.7580     0.2880 C.ar  1 <1>   0.0000 
 14 C        3.1310    -0.0010    -0.8310 C.ar  1 <1>   0.0000 
 15 C        2.7480    -2.1500     0.2040 C.ar  1 <1>   0.0000 
 16 C        3.4400    -0.6360    -2.0340 C.ar  1 <1>   0.0000 
 17 C        3.0570    -2.7850    -0.9990 C.ar  1 <1>   0.0000 
 18 C        3.4030    -2.0270    -2.1180 C.ar  1 <1>   0.0000 
 19 C        3.1800     1.4540    -0.7820 C.2   1 <1>   0.0000 
 20 C       -0.2960     0.0340     1.0310 C.2   1 <1>   0.0000 
 21 C       -2.6360     0.6010     0.3030 C.ar  1 <1>   0.0000 
 22 C       -4.6740     1.2720    -0.3220 C.ar  1 <1>   0.0000 
 23 C       -4.1680    -0.9140    -0.2900 C.ar  1 <1>   0.0000 
 24 C        1.8940     3.4360    -1.0970 C.3   1 <1>   0.0000 
 25 C       -5.6540     2.3660    -0.5740 C.3   1 <1>   0.0000 
 26 C       -3.5430    -3.2080    -0.2260 C.3   1 <1>   0.0000 
 27 H        2.4800    -2.7680     1.0560 H     1 <1>   0.0000 
 28 H        0.8620     1.7600     1.4330 H     1 <1>   0.0000 
 29 H        3.7110    -0.0560    -2.9130 H     1 <1>   0.0000 
 30 H        3.0280    -3.8690    -1.0650 H     1 <1>   0.0000 
 31 H        3.6440    -2.5210    -3.0550 H     1 <1>   0.0000 
 32 H       -1.1480     1.9030     0.8680 H     1 <1>   0.0000 
 33 H       -6.6180     2.1270    -0.1140 H     1 <1>   0.0000 
 34 H       -5.8000     2.4920    -1.6510 H     1 <1>   0.0000 
 35 H       -5.3040     3.3160    -0.1580 H     1 <1>   0.0000 
 36 H        2.5860     3.8580    -1.8330 H     1 <1>   0.0000 
 37 H        2.1140     3.8180    -0.0960 H     1 <1>   0.0000 
 38 H        0.8740     3.7230    -1.3670 H     1 <1>   0.0000 
 39 H       -3.9810    -4.1900    -0.4290 H     1 <1>   0.0000 
 40 H       -2.6780    -3.0830    -0.8860 H     1 <1>   0.0000 
 41 H       -3.2370    -3.1880     0.8260 H     1 <1>   0.0000 
@<TRIPOS>BOND
  1   1   2  2   
  2   1   3  2   
  3   1   8  am  
  4   1  13  1   
  5   4  19  1   
  6   4  24  1   
  7   5  19  2   
  8   6  20  2   
  9   7  23  1   
 10   7  26  1   
 11   8  20  am  
 12   8  28  1   
 13   9  20  am  
 14   9  21  1   
 15   9  32  1   
 16  10  21  ar  
 17  10  22  ar  
 18  11  21  ar  
 19  11  23  ar  
 20  12  22  ar  
 21  12  23  ar  
 22  13  14  ar  
 23  13  15  ar  
 24  14  16  ar  
 25  14  19  1   
 26  15  17  ar  
 27  15  27  1   
 28  16  18  ar  
 29  16  29  1   
 30  17  18  ar  
 31  17  30  1   
 32  18  31  1   
 33  22  25  1   
 34  24  36  1   
 35  24  37  1   
 36  24  38  1   
 37  25  33  1   
 38  25  34  1   
 39  25  35  1   
 40  26  39  1   
 41  26  40  1   
 42  26  41  1   
@<TRIPOS>SUBSTRUCTURE
  1 ****  20 GROUP 4 **** **** 0

# MOE 2010.10 (io_trps.svl 2010.06)

