@<TRIPOS>MOLECULE
7747
12 11 1 0 0 
SMALL
NO_CHARGES


@<TRIPOS>ATOM
  1 O       -1.6920    -0.6460     0.0040 O.3   1 <1>   0.0000 
  2 O       -0.4210     1.2790    -0.0100 O.2   1 <1>   0.0000 
  3 N        2.9590     0.3070     0.0110 N.1   1 <1>   0.0000 
  4 C        0.6320    -0.9130    -0.0110 C.3   1 <1>   0.0000 
  5 C       -0.5210     0.0600    -0.0060 C.2   1 <1>   0.0000 
  6 C       -2.8870     0.1430     0.0100 C.3   1 <1>   0.0000 
  7 C        1.9300    -0.2300     0.0020 C.1   1 <1>   0.0000 
  8 H        0.5540    -1.5360    -0.9090 H     1 <1>   0.0000 
  9 H        0.5480    -1.5540     0.8740 H     1 <1>   0.0000 
 10 H       -3.7430    -0.5370     0.0180 H     1 <1>   0.0000 
 11 H       -2.9380     0.7610    -0.8910 H     1 <1>   0.0000 
 12 H       -2.9250     0.7650     0.9100 H     1 <1>   0.0000 
@<TRIPOS>BOND
  1   1   5  1   
  2   1   6  1   
  3   2   5  2   
  4   3   7  3   
  5   4   5  1   
  6   4   7  1   
  7   4   8  1   
  8   4   9  1   
  9   6  10  1   
 10   6  11  1   
 11   6  12  1   
@<TRIPOS>SUBSTRUCTURE
  1 ****   5 GROUP 4 **** **** 0

# MOE 2010.10 (io_trps.svl 2010.06)

